%nprocshared=24
%mem=120GB
# HF/6-31G(d) Opt Freq

O=[N+1]([O-1])OCC(C(O[N+1]([O-1])=O)O[N+1]([O-1])=O)O[N+1] geometry optimization

0 1
O    3.3019639797757234    1.8459393302109068    -0.21172559305839614
N    2.4560743672654395    1.9201387262040124    -1.1038462017615824
O    2.336748380453572    2.730181055548366    -2.0191395734448534
O    1.445389224157965    0.9264260887494784    -1.113250179546215
C    1.6260436724019187    -0.05011821673037404    -0.08878685668235535
C    0.48999588869347405    -1.08004235422194    -0.1614074886082023
C    -0.9238070100202895    -0.47938456109991506    0.049237615951682745
O    -1.0070222762164607    0.05156444717903224    1.370644037533317
N    -1.0391114680590683    1.4608003860759289    1.424653441420394
O    -0.7439143621678979    2.065329567579989    0.3966554915011851
O    -1.2776868590735488    1.883407018558151    2.5516100025300474
O    -1.8206020579735205    -1.6017425333977238    -0.06403919501669754
N    -3.1669448364385353    -1.2090058309766918    -0.2037009158884573
O    -3.4055152827396435    -0.0033430872988031626    -0.14679048952828233
O    -3.9268927399176983    -2.1615551116771132    -0.3513437554073621
O    0.5123116555820211    -1.6942632584074002    -1.4608405361741477
N    1.412186027467271    -2.8370543501216727    -1.415584645352741
H    2.58227277576126    -0.56260354694322    -0.25257201938443935
H    1.633913786513645    0.42015913555739187    0.9014392552462406
H    0.6525223047799641    -1.840491135252707    0.6165623912899575
H    -1.137925170245547    0.21565823046465038    -0.774263292167588


