%nprocshared=24
%mem=120GB
# HF/6-31G(d) Opt Freq

O=[N+1]([O-1])OC(CC(O[N+1]([O-1])=O)O[N+1]([O-1])=O)O[N+1]([O-1])=O geometry optimization

0 1
O    -2.2474834799326144    2.009068932895303    0.8762632737237512
N    -3.0279162583483283    1.4183117516534305    0.12937166188889446
O    -4.167086200704537    1.7141376107696717    -0.2190139198361869
O    -2.55248207056104    0.24384868181166947    -0.4958650779044068
C    -1.2656384807208299    -0.16062680045528135    -0.02605670050204424
C    -0.20046688005919133    0.5376936293242391    -0.8906660947197463
C    1.2566294080107299    0.23414714973107983    -0.4922676762630698
O    2.0372952133598345    0.7899637520394029    -1.5640725497383197
N    3.3864016035793387    0.3766335054169505    -1.5237426645353287
O    4.047513780285094    0.8233431493485476    -2.4565476720658745
O    3.717362705503076    -0.35841437157736267    -0.5940073326436615
O    1.5573014402380565    0.9142839489214977    0.7233909373460724
N    1.645044301256813    0.06187549712753155    1.844884198165815
O    2.1281102668951704    0.6140773679785936    2.8277669253299083
O    1.156826687942975    -1.0615226954524712    1.7225000568725861
O    -1.0851037422184098    -1.564495336761182    -0.24541814971497597
N    -1.818146558640784    -2.3545754520874937    0.6697685960101873
O    -1.6657986675670897    -3.558226784350086    0.4817433945409247
O    -2.5047566882957732    -1.7581859044330024    1.4989660489900678
H    -1.0982425411898218    0.06941312838630527    1.0335477648358355
H    -0.356740639542954    1.6238151957951168    -0.8783237016717528
H    -0.34879669703074806    0.2391257572004685    -1.9383039367381123
H    1.4061734977411524    -0.8536917132829275    -0.4839173813707458


