%nprocshared=24
%mem=120GB
# HF/6-31G(d) Opt Freq

O=[N+1]([O-1])OC(CC(O[N+1]([O-1])[O-1])O[N+1]([O-1])=O)O[N+1]([O-1])=O geometry optimization

0 1
O    -1.8034137086173097    1.6853996206320647    2.0483517708281784
N    -2.7259825678496172    0.9063715916627605    1.8098387315981381
O    -3.820078523965182    0.7857030452062818    2.3534424218489747
O    -2.5027650954018084    -0.0669360282236734    0.8106098277543443
C    -1.279058529239605    0.12628599262070647    0.0993500134718776
C    -0.16997200431055676    -0.6328309017363163    0.8547513965774112
C    1.2206304968415056    -0.563656448485481    0.19570719646511134
O    1.6131590470747823    0.8033898309157633    0.17713910289043716
N    2.043619121393582    1.1413865175143663    -1.170654885825984
O    0.8559638558009764    1.4458833366093737    -1.8965380840147668
O    2.7869845935883863    2.342667634296573    -1.0618371905087114
O    2.0651351693565307    -1.3460265372832414    1.0473995565268686
N    3.264052950536701    -1.742118738916634    0.4215992372679336
O    3.9628140404543406    -2.4538781687088256    1.1352081374767307
O    3.447392258508596    -1.3374110542479034    -0.7260713906828064
O    -1.3592179114954717    -0.48880844944791074    -1.1916205687975225
N    -2.1861125799513355    0.23295241727678592    -2.085077989210289
O    -2.7490381016452266    1.23419590126505    -1.6438840092894358
O    -2.241463163092471    -0.28704515588517293    -3.1963198393891314
H    -1.0016465652333926    1.1820455342759812    -0.01805593179958566
H    -0.45797871065502843    -1.6888736726392084    0.9545904279714547
H    -0.09903232490460734    -0.2601320580372003    1.8846281672005079
H    1.136008252806295    -1.0185642086643698    -0.8025560983594328


