%nprocshared=24
%mem=120GB
# HF/6-31G(d) Opt Freq

O=[N+1]([O-1])OC(O[N+1]([O-1])=O)(CO[N+1]([O-1])=O)O[N+1]([O-1])=O geometry optimization

0 1
O    0.21338218778465023    -2.6937887658008615    -0.077947923095429
N    0.13967531078865095    -2.4733338672355365    1.1269594780042187
O    0.3203347394891187    -3.22433734966412    2.0790763229597964
O    -0.18011563063659802    -1.1652627669075795    1.524467756943046
C    -0.3223625554287127    -0.1860304464929968    0.4618556718804918
O    -1.1263114369962466    -0.6017248070527677    -0.6462219535269681
N    -2.4515288040589582    -0.916440876285787    -0.30205096805283277
O    -2.7672931910918646    -0.7679951257912476    0.8767818848947649
O    -3.1129463725129978    -1.3147373153825246    -1.2546926541851569
C    1.1350653563898132    0.09528538503887443    -0.05568407238845228
O    1.1631385034437514    1.12561753117993    -1.04208495867539
N    2.473820024121877    1.4075871302118275    -1.499505726599631
O    2.501042400312567    2.2858223767000965    -2.3557478203731423
O    3.390110754881879    0.7671491500625239    -0.9842359000955841
O    -0.7241889916371816    1.011693111944511    1.1702552496649579
N    -1.2031538329582627    2.08211400206132    0.40022441293740685
O    -1.3378225150805636    3.10757872410055    1.0598900495166867
O    -1.4255376853436688    1.8746090344526536    -0.7876813633198402
H    1.7492696622273456    0.3943363071472475    0.8049704613060464
H    1.565422076305559    -0.8081414322860178    -0.49862794779472347


