%nprocshared=24
%mem=120GB
# HF/6-31G(d) Opt Freq

O=[N+1]([O-1])OC(O[N+1]([O-1])=O)(CO[N+1]([O-1])=O)O[N+1]([O-1])[O-1] geometry optimization

0 1
O    -2.9024606006913416    0.5871441715585372    0.28215474826843523
N    -2.424336208159624    0.990580517149618    -0.7764128140871659
O    -2.9349296459682135    1.635967338089127    -1.684784435798814
O    -1.086338638366643    0.650664058292869    -1.0321397122533382
C    -0.44574890217622337    0.010182957275872019    0.08573886551644475
O    -0.9914502633764973    -1.2523808872930429    0.5078761651539836
N    -1.2148616353140564    -2.1922686633227393    -0.5125451944202407
O    -0.9940285440598835    -1.8325257431995408    -1.6642771771698037
O    -1.603799092080283    -3.270603874144021    -0.07990315004193366
C    1.0442538838179545    -0.19640417558318798    -0.3461189520321764
O    1.6498274484789397    1.076467681854611    -0.597937627051283
N    3.0155755456188444    0.9660966668418924    -0.9558228598386598
O    3.5388668079419374    2.055448159266772    -1.1695584026561687
O    3.4834058448242367    -0.17053537878249334    -1.0173107728503417
O    -0.3640971167550268    0.97377084045628    1.1644167014802709
N    -0.4381642596570509    0.28661993621068943    2.4364860911102024
O    0.8983652160893649    -0.02933315729504648    2.797373425548822
O    -0.9187148811008773    1.228735956051925    3.376888087001901
H    1.586484128003491    -0.7237870455130854    0.4477343570346738
H    1.1021509129308573    -0.7938393579149958    -1.261857342914782


