%nprocshared=24
%mem=120GB
# HF/6-31G(d) Opt Freq

O=[N+1]([O-1])OC(CO[N+1]([O-1])=O)O[N+1]([O-1])=O geometry optimization

0 1
O    -1.3842588791512416    -1.9718821784934453    -0.12320856508349791
N    -1.2235250373483681    -1.6195542525595228    1.0437344455587565
O    -1.4209195783218367    -2.233353564885746    2.0887286820762037
O    -0.6959336390871924    -0.3289634205500948    1.2675063036631702
C    -0.4773347882644026    0.41869443506981485    0.07277123742853052
C    1.0105004513798577    0.2951034370328597    -0.3077123717378271
O    1.2998663011111597    -1.0324972018596184    -0.7339478151365268
N    2.6533786699901496    -1.1973960267759198    -1.1159664567275656
O    2.909476406569271    -2.341072074115597    -1.481219693586852
O    3.379955211116006    -0.20662507771298458    -1.035652003182387
O    -0.6824891437330983    1.8169219008901858    0.31775687136010977
N    -2.048701433030081    2.1507022445725616    0.4215745531064861
O    -2.8593720597904526    1.2308157487389957    0.32155358079619495
O    -2.229929059883921    3.3518058706578913    0.5989005939057755
H    -1.0831376393569832    0.11141842114556513    -0.790388306410088
H    1.6234809819376768    0.5466729688941808    0.5682138268745196
H    1.2289432358664083    1.0092087699655294    -1.1126448829109588


