%nprocshared=24
%mem=120GB
# HF/6-31G(d) Opt Freq

O=[N+1]([O-1])OCC(CO[N+1]([O-1])=O)O[N+1]([O-1])=O geometry optimization

0 1
O    3.666397213938055    -0.27280435083747767    0.9175549970341984
N    3.021679251554008    -1.234324882966183    0.498293924627069
O    3.3306068294425977    -2.419669719890348    0.41320508354879765
O    1.7076279822023825    -0.9754503363811386    0.035637162517610545
C    1.3586565146471943    0.40107526357074985    0.12002348018134984
C    -0.07028295162009249    0.6191628929600261    -0.4115059901695492
C    -1.1194016784827714    -0.03600579365002949    0.5059680112142549
O    -1.0215613870270632    -1.452956821045545    0.4133412725958048
N    -1.9591301084482193    -2.1199828467418547    1.2401491499995272
O    -2.690630003122037    -1.41603727465257    1.9369703343822655
O    -1.8919746387304641    -3.3424319121061297    1.1446150643713506
O    -0.2715136073686507    2.03617884500329    -0.4481433111441017
N    -1.2177175025233509    2.4557510104751317    -1.4158023855437984
O    -1.803050036958172    1.5752990366730777    -2.044865440882713
O    -1.328680821757807    3.676964742861139    -1.4702050820383077
H    1.418970151126889    0.7564329181456606    1.157441134948576
H    2.0490321950811565    1.0015829221015515    -0.4876220559391547
H    -0.10274176786468607    0.16091776935479127    -1.4095129384317788
H    -0.9525720908706355    0.29961600780690284    1.5382539342495547
H    -2.1237135432184595    0.2866825293187826    0.2058626431555236


