%nprocshared=24
%mem=120GB
# HF/6-31G(d) Opt Freq

O=[N+1]([O-1])OCC(CO[N+1]([O-1])=O)O[N+1]([O-1])[O-1] geometry optimization

0 1
O    -3.5991104678248242    -1.5473799941329913    -0.879817364969967
N    -3.136736135671926    -1.7265436756778036    0.24634523379771817
O    -3.5370005116004823    -2.43271249410727    1.1676501747318697
O    -1.9448648266210655    -1.030505311563735    0.5714152157791176
C    -1.486576283035759    -0.20230784430131876    -0.492009500635824
C    -0.20628532281931397    0.5171446873299806    -0.050735047741262036
C    0.9452611409657911    -0.47848240949075266    0.15993846485270535
O    2.0115958376428087    0.2059855244113898    0.8199156998628768
N    3.1359517726314228    -0.629393317842109    1.045166989664507
O    4.041984344087936    -0.05427783680746025    1.6414346084042706
O    3.0567344882000804    -1.790556781166322    0.6436622675821718
O    0.13652627685826368    1.4229259546058521    -1.0992205695341615
N    0.754588955534413    2.5985641632257126    -0.5092126292778196
O    -0.10738687860293837    3.690097992717775    -0.7845125445954745
O    1.9686820646063337    2.810395729854138    -1.2091194276875938
H    -2.245540501619191    0.5508193973065622    -0.7419984469747898
H    -1.2804567050957036    -0.7981137679024256    -1.3911884072772787
H    -0.40671320870698713    1.054401106905315    0.8872505924973645
H    1.2895196004624916    -0.8488312149461454    -0.8139394163859281
H    0.6098263606085915    -1.3112299084185521    0.7889741079075548


