%nprocshared=24
%mem=120GB
# HF/6-31G(d) Opt Freq

O=[N+1]([O-1])OC(C(CO[N+1]([O-1])=O)O[N+1]([O-1])=O)O[N+1]([O-1])=O geometry optimization

0 1
O    -3.995466916902971    1.1757209500962038    -1.4639335523731538
N    -3.1435080198640346    0.8684822764676757    -0.6360446022005429
O    -3.0361112199766    1.188362189797641    0.5456781598511558
O    -2.140780859049267    0.03394617384829856    -1.1771672434655642
C    -1.1403110217767596    -0.3898095003457237    -0.23333850868772968
C    0.10733870641605081    0.5210868518406446    -0.44486477277560055
C    1.2695889304846648    0.17890749456228028    0.50526943865683
O    1.8622778502550175    -1.0544305684744588    0.11594562156805177
N    2.972783713885987    -1.4069365894070023    0.9273529651138199
O    3.2644077848453583    -0.6358062880890974    1.8409129090813143
O    3.488402538702958    -2.4670212710598416    0.5847433884820451
O    -0.2975160428928598    1.8771782152519063    -0.20565592410200814
N    0.443239968350179    2.8378785897963503    -0.9395612790151833
O    1.3819680626872253    2.418773698822779    -1.6147508016684946
O    0.030386181575368567    3.9807966717021803    -0.7745574050722691
O    -0.8196905696693845    -1.737863966324192    -0.5963254195399764
N    -0.7315585150742117    -2.625641188475993    0.49547026383938686
O    -0.7171547869118814    -3.8023937530913203    0.151156589146101
O    -0.625426079739047    -2.1229809630552827    1.6127210349213237
H    -1.505230326829122    -0.30903982499361154    0.7940453280639459
H    0.4166959948722875    0.3649950203226973    -1.4879550026910329
H    2.0205032707204658    0.9775399308608481    0.465084703163377
H    0.895161355890493    0.12825584994696557    1.535774109704369


