%nprocshared=24
%mem=120GB
# HF/6-31G(d) Opt Freq

O=[N+1]([O-1])OC(C(CO[N+1]([O-1])[O-1])O[N+1]([O-1])=O)O[N+1]([O-1])=O geometry optimization

0 1
O    1.4407656632093209    -2.493114949403531    2.8810281175129178
N    1.642366762508435    -1.606832241421744    2.0561926642076154
O    2.6974221464836603    -1.108583133137314    1.6654074871034366
O    0.44793387877477897    -1.095543981594755    1.503944735745261
C    0.6805790780161779    -0.008233375350448827    0.5942249439972567
C    -0.7234616971439092    0.6269825243944598    0.3493824852469801
C    -1.6985346565774104    -0.31774914094733125    -0.38017651788360224
O    -1.2334763189382365    -0.5990317660777187    -1.703344209111421
N    -1.571112404678664    -1.9652029137712868    -2.0970410349999615
O    -2.953287919898034    -2.189269815182418    -1.8450391565991158
O    -0.815671359040184    -2.8460440254007175    -1.2712682762283765
O    -0.6549333817421162    1.82954562441421    -0.427831022594611
N    -0.3561496660917751    2.9850500145404197    0.3397562967536374
O    -0.43009113760395057    4.02169702410598    -0.31180441990828806
O    -0.07827757263687377    2.8025784213496006    1.5250166295651413
O    1.2312282615394967    -0.4953986928504866    -0.6276301717659144
N    2.068409419588967    0.4268176034201457    -1.2888839431934527
O    2.1756161845301203    1.5451975535143132    -0.7900277358473006
O    2.529044800773118    -0.02103102778010551    -2.334560957483024
H    1.3199754728059567    0.7261856956497328    1.099710404137069
H    -1.2033420645064203    0.8181426262173604    1.3201391496365675
H    -1.8459613882187527    -1.2182877392973754    0.22795830538295309
H    -2.6690421011537278    0.18212571460901367    -0.48515377367347456


