%nprocshared=24
%mem=120GB
# HF/6-31G(d) Opt Freq

O=[N+1]([O-1])OCCC(O[N+1]([O-1])=O)(O[N+1]([O-1])=O)O[N+1]([O-1])=O geometry optimization

0 1
O    3.6758387574186893    1.3298356036934145    0.583162455852712
N    3.6785980166383414    0.16991041112879346    0.9967268810237558
O    4.5684570120751635    -0.47231362495625584    1.5493263637103445
O    2.49646667651218    -0.5877239129808368    0.800165917501842
C    1.4532574435152859    0.16965213683432986    0.18105606037281957
C    0.2604551071363377    -0.7744126894552898    -0.00926830331221011
C    -1.0552624094758019    -0.2082195015736102    -0.6506423089431531
O    -0.6484752021188354    0.45253862170804965    -1.8815891985405842
N    -0.4552106947064553    1.8396016676689038    -1.8012926213004063
O    -0.296854161011065    2.357167072474895    -2.9017414539654505
O    -0.4119008755660564    2.33599761885948    -0.6800596389506792
O    -2.075688722950182    0.541614726933056    0.001392736573265027
N    -1.9237678454085565    0.8915740433119673    1.3518858705378383
O    -0.8776107265078593    0.591916211189125    1.9131717021534476
O    -2.90539588955687    1.4866084686985546    1.7882261567836757
O    -1.7046004536647834    -1.387048121661533    -1.2266509402580987
N    -2.3353499882891784    -2.2447531425858664    -0.31100689989136143
O    -2.8470827776595455    -3.218172257161289    -0.8550572245342869
O    -2.292369675892286    -1.9362274009384222    0.8757809163180005
H    1.2009210906251484    1.021980627494638    0.8161677882700967
H    1.7971728422012305    0.5189182718491806    -0.7992445052926367
H    0.06816188026503739    -1.3043144290371242    0.9304454488858334
H    0.6302405964205405    -1.5741304014941038    -0.6709552029949787


