%nprocshared=24
%mem=120GB
# HF/6-31G(d) Opt Freq

O=[N+1]([O-1])OCC(O[N+1]([O-1])=O)(CO[N+1]([O-1])=O)O[N+1]([O-1])=O geometry optimization

0 1
O    3.7176024237217002    -0.40248372014676487    0.7156896703800429
N    3.2640389665037866    -0.6954193008153111    -0.39014073243956876
O    3.79258366758749    -1.2593319938649135    -1.3438128257412532
O    1.9196026388425536    -0.33106637831029073    -0.6495405419995472
C    1.302433601367604    0.3214019362426951    0.4630687183906764
C    -0.1432271611779914    0.757152251041077    0.08029256161276799
O    -0.7111508987221253    1.4992682881382338    1.1714031111107146
N    -1.0941552203211693    0.7672545462612395    2.3098431666593306
O    -0.9071571821486144    -0.4443505771804949    2.2870675108602128
O    -1.5575736370374298    1.4786675694307378    3.194416601738292
C    -1.0049678447632322    -0.42521427519771415    -0.4869712667661516
O    -0.5165755921803667    -1.6937510175352755    -0.04481600775483967
N    -1.3137926622722964    -2.775604272657401    -0.4926486501360187
O    -0.8939285125606242    -3.863776340388203    -0.10948206577337588
O    -2.280655618293123    -2.4990961994809386    -1.202222490992263
O    0.11408549690391016    1.6878783632530712    -1.0144521093900354
N    -1.017810540681479    2.3982192891444916    -1.470874581581078
O    -0.7391400745839353    3.2222075464912048    -2.3356972455623786
O    -2.1044274323837255    2.0939786033855894    -0.984066176868728
H    1.3054854600682373    -0.3461211537065964    1.3310106713313574
H    1.8736157170454164    1.223477394772155    0.7241781110991901
H    -2.0475542253649572    -0.3013581101769847    -0.1685225448082011
H    -0.9573313695494211    -0.41193244869922485    -1.5837228833699193


