%nprocshared=24
%mem=120GB
# HF/6-31G(d) Opt Freq

O=[N+1]([O-1])OC(C(O[N+1]([O-1])=O)O[N+1]([O-1])=O)O[N+1]([O-1])=O geometry optimization

0 1
O    -2.2151892592885494    1.7253087915198946    -0.4909334733383108
N    -2.3520815877004333    0.6512482865114632    -1.073088050435381
O    -3.0867125710835452    0.3438454060553091    -2.0063058990580687
O    -1.5167011479610202    -0.4126935936545517    -0.6680965358144155
C    -0.6725172521918672    -0.09528341628222049    0.4414790708598497
C    0.7377189679057925    0.32188776909462424    -0.0917693426099395
O    1.20439782002618    -0.6726999873470164    -1.006952288561917
N    2.072761151916105    -1.6220110067811515    -0.42505493846831716
O    2.481994316493401    -2.445511587719825    -1.2371197954785673
O    2.270050535486725    -1.5346382221742614    0.7851897520292641
O    0.581937342474389    1.57412985800937    -0.7713312277836063
N    1.8151499901804755    2.2069783096102213    -1.0316715737599587
O    2.8311034106637805    1.613835522210201    -0.6723204283621432
O    1.6844352985932887    3.289255304218057    -1.5937834345144857
O    -0.49037856973494315    -1.2559235664101396    1.2624069859833333
N    -1.6262688710421032    -1.5505323450723076    2.0447409777297443
O    -1.4661244809772325    -2.530526458358224    2.7647028451301865
O    -2.6000720008825504    -0.8108988424774849    1.9114638604113565
H    -1.035758914406292    0.7264021860488353    1.074099269755681
H    1.3822558215285328    0.47782759299929634    0.7843442262855811


